@<TRIPOS>MOLECULE
4i4f_ligand-prepared.pdb
 55 58 0 0 0
SMALL
GASTEIGER

@<TRIPOS>ATOM
      1  C1       -10.3180   -1.1070  -15.5770 C.3   702  1BR702      0.0236
      2  N2       -11.1020    0.0190  -15.0940 N.pl3 702  1BR702     -0.2053
      3  C3       -11.0790    1.2690  -15.7690 C.ar  702  1BR702      0.0603
      4  C4       -11.0680    1.2500  -17.1730 C.ar  702  1BR702     -0.0367
      5  C5       -10.9780    2.4660  -17.8810 C.ar  702  1BR702     -0.0390
      6  C6       -10.9100    3.6870  -17.1760 C.ar  702  1BR702      0.0281
      7  N7       -10.8750    4.9040  -17.8950 N.pl3 702  1BR702     -0.3397
      8  C8       -10.1840    6.1430  -17.4240 C.3   702  1BR702      0.0344
      9  C9        -9.7710    6.8800  -18.6980 C.ar  702  1BR702     -0.0304
     10  C10       -8.7010    6.3810  -19.4410 C.ar  702  1BR702     -0.0568
     11  C11       -8.3030    7.0250  -20.6040 C.ar  702  1BR702     -0.0578
     12  C12       -9.0020    8.1520  -21.0590 C.ar  702  1BR702     -0.0420
     13  C13      -10.0640    8.6550  -20.3030 C.ar  702  1BR702     -0.0578
     14  C14      -10.4770    8.0010  -19.1160 C.ar  702  1BR702     -0.0568
     15  C15       -8.5590    8.8140  -22.3590 C.3   702  1BR702     -0.0127
     16  C16       -8.7320    7.8230  -23.5310 C.3   702  1BR702     -0.0560
     17  C17       -9.3960   10.0560  -22.6790 C.3   702  1BR702     -0.0560
     18  C18       -7.0890    9.2540  -22.2770 C.3   702  1BR702     -0.0560
     19  C19      -10.9470    3.6960  -15.7870 C.ar  702  1BR702     -0.0298
     20  C20      -10.9960    2.4910  -15.0580 C.ar  702  1BR702      0.0263
     21  C21      -11.0060    2.4930  -13.5710 C.ar  702  1BR702      0.0970
     22  C22      -11.4010    1.3650  -12.8590 C.ar  702  1BR702      0.1538
     23  C23      -11.2890    1.6150  -11.4960 C.ar  702  1BR702      0.0766
     24  N24      -10.8120    2.8260  -11.3520 N.ar  702  1BR702     -0.1773
     25  N25      -10.6370    3.3960  -12.6200 N.ar  702  1BR702     -0.2647
     26  C26      -10.1240    4.7490  -12.8000 C.3   702  1BR702      0.0309
     27  S27      -11.9390   -0.0720  -13.6790 S.O2  702  1BR702      0.0780
     28  O28      -13.3140    0.1420  -14.0330 O.2   702  1BR702     -0.1497
     29  O29      -11.6000   -1.2660  -12.9940 O.2   702  1BR702     -0.1497
     30  H         -9.8550   -0.8470  -16.5060 H     702  1BR702      0.0446
     31  H        -10.9590   -1.9520  -15.7220 H     702  1BR702      0.0446
     32  H         -9.5640   -1.3510  -14.8580 H     702  1BR702      0.0446
     33  H        -11.1250    0.3540  -17.6820 H     702  1BR702      0.0637
     34  H        -10.9620    2.4630  -18.9130 H     702  1BR702      0.0637
     35  H        -11.3370    4.9380  -18.7640 H     702  1BR702      0.1464
     36  H        -10.8490    6.7450  -16.8410 H     702  1BR702      0.0511
     37  H         -9.3440    5.9200  -16.8010 H     702  1BR702      0.0511
     38  H         -8.2050    5.5330  -19.1260 H     702  1BR702      0.0621
     39  H         -7.4910    6.6740  -21.1350 H     702  1BR702      0.0621
     40  H        -10.5520    9.5100  -20.6120 H     702  1BR702      0.0621
     41  H        -11.2840    8.3490  -18.5750 H     702  1BR702      0.0621
     42  H         -8.4200    8.2900  -24.4420 H     702  1BR702      0.0238
     43  H         -9.7610    7.5390  -23.6090 H     702  1BR702      0.0238
     44  H         -8.1350    6.9530  -23.3540 H     702  1BR702      0.0238
     45  H         -9.0550   10.4900  -23.5960 H     702  1BR702      0.0238
     46  H         -9.2940   10.7690  -21.8870 H     702  1BR702      0.0238
     47  H        -10.4240    9.7770  -22.7770 H     702  1BR702      0.0238
     48  H         -6.8030    9.7150  -23.1990 H     702  1BR702      0.0238
     49  H         -6.4700    8.4000  -22.0980 H     702  1BR702      0.0238
     50  H         -6.9700    9.9540  -21.4770 H     702  1BR702      0.0238
     51  H        -10.9380    4.5960  -15.2830 H     702  1BR702      0.0643
     52  H        -11.5370    0.9640  -10.7350 H     702  1BR702      0.0868
     53  H        -10.0730    4.9750  -13.8450 H     702  1BR702      0.0473
     54  H         -9.1460    4.8190  -12.3720 H     702  1BR702      0.0473
     55  H        -10.7760    5.4450  -12.3160 H     702  1BR702      0.0473
@<TRIPOS>BOND
     1     1     2    1
     2     1    30    1
     3     1    31    1
     4     1    32    1
     5     2     3    1
     6     2    27    1
     7     3     4   ar
     8     3    20   ar
     9     4     5   ar
    10     4    33    1
    11     5     6   ar
    12     5    34    1
    13     6     7    1
    14     6    19   ar
    15     7     8    1
    16     7    35    1
    17     8     9    1
    18     8    36    1
    19     8    37    1
    20     9    10   ar
    21     9    14   ar
    22    10    11   ar
    23    10    38    1
    24    11    12   ar
    25    11    39    1
    26    12    15    1
    27    12    13   ar
    28    13    14   ar
    29    13    40    1
    30    14    41    1
    31    15    16    1
    32    15    17    1
    33    15    18    1
    34    16    42    1
    35    16    43    1
    36    16    44    1
    37    17    45    1
    38    17    46    1
    39    17    47    1
    40    18    48    1
    41    18    49    1
    42    18    50    1
    43    19    20   ar
    44    19    51    1
    45    20    21    1
    46    21    22   ar
    47    21    25   ar
    48    22    27    1
    49    22    23   ar
    50    23    24   ar
    51    23    52    1
    52    24    25   ar
    53    25    26    1
    54    26    53    1
    55    26    54    1
    56    26    55    1
    57    27    28    2
    58    27    29    2
