@<TRIPOS>MOLECULE
4i4f_ligand-prepared.pdb
   55    58     1     0     0
SMALL
bcc


@<TRIPOS>ATOM
      1 C1         -10.3180    -1.1070   -15.5770 c3       702 1BR       0.188100
      2 N2         -11.1020     0.0190   -15.0940 nh       702 1BR      -0.649900
      3 C3         -11.0790     1.2690   -15.7690 ca       702 1BR       0.193600
      4 C4         -11.0680     1.2500   -17.1730 ca       702 1BR      -0.139000
      5 C5         -10.9780     2.4660   -17.8810 ca       702 1BR      -0.132000
      6 C6         -10.9100     3.6870   -17.1760 ca       702 1BR       0.112600
      7 N7         -10.8750     4.9040   -17.8950 nu       702 1BR      -0.720600
      8 C8         -10.1840     6.1430   -17.4240 c3       702 1BR       0.232100
      9 C9          -9.7710     6.8800   -18.6980 ca       702 1BR      -0.115300
     10 C10         -8.7010     6.3810   -19.4410 ca       702 1BR      -0.116500
     11 C11         -8.3030     7.0250   -20.6040 ca       702 1BR      -0.128000
     12 C12         -9.0020     8.1520   -21.0590 ca       702 1BR      -0.053300
     13 C13        -10.0640     8.6550   -20.3030 ca       702 1BR      -0.128000
     14 C14        -10.4770     8.0010   -19.1160 ca       702 1BR      -0.116500
     15 C15         -8.5590     8.8140   -22.3590 c3       702 1BR      -0.012700
     16 C16         -8.7320     7.8230   -23.5310 c3       702 1BR      -0.086100
     17 C17         -9.3960    10.0560   -22.6790 c3       702 1BR      -0.086100
     18 C18         -7.0890     9.2540   -22.2770 c3       702 1BR      -0.086100
     19 C19        -10.9470     3.6960   -15.7870 ca       702 1BR      -0.137000
     20 C20        -10.9960     2.4910   -15.0580 ca       702 1BR      -0.081000
     21 C21        -11.0060     2.4930   -13.5710 cc       702 1BR       0.113700
     22 C22        -11.4010     1.3650   -12.8590 cd       702 1BR      -0.609800
     23 C23        -11.2890     1.6150   -11.4960 cd       702 1BR       0.435200
     24 N24        -10.8120     2.8260   -11.3520 nc       702 1BR      -0.514800
     25 N25        -10.6370     3.3960   -12.6200 na       702 1BR       0.115400
     26 C26        -10.1240     4.7490   -12.8000 c3       702 1BR       0.028600
     27 S27        -11.9390    -0.0720   -13.6790 sy       702 1BR       1.571200
     28 O28        -13.3140     0.1420   -14.0330 o        702 1BR      -0.653800
     29 O29        -11.6000    -1.2660   -12.9940 o        702 1BR      -0.653800
     30 H           -9.8550    -0.8470   -16.5060 h1       702 1BR       0.054367
     31 H1         -10.9590    -1.9520   -15.7220 h1       702 1BR       0.054367
     32 H2          -9.5640    -1.3510   -14.8580 h1       702 1BR       0.054367
     33 H3         -11.1250     0.3540   -17.6820 ha       702 1BR       0.146000
     34 H4         -10.9620     2.4630   -18.9130 ha       702 1BR       0.140000
     35 H5         -11.3370     4.9380   -18.7640 hn       702 1BR       0.401800
     36 H6         -10.8490     6.7450   -16.8410 h1       702 1BR       0.045200
     37 H7          -9.3440     5.9200   -16.8010 h1       702 1BR       0.045200
     38 H8          -8.2050     5.5330   -19.1260 ha       702 1BR       0.133500
     39 H9          -7.4910     6.6740   -21.1350 ha       702 1BR       0.137000
     40 H10        -10.5520     9.5100   -20.6120 ha       702 1BR       0.137000
     41 H11        -11.2840     8.3490   -18.5750 ha       702 1BR       0.133500
     42 H12         -8.4200     8.2900   -24.4420 hc       702 1BR       0.038144
     43 H13         -9.7610     7.5390   -23.6090 hc       702 1BR       0.038144
     44 H14         -8.1350     6.9530   -23.3540 hc       702 1BR       0.038144
     45 H15         -9.0550    10.4900   -23.5960 hc       702 1BR       0.038144
     46 H16         -9.2940    10.7690   -21.8870 hc       702 1BR       0.038144
     47 H17        -10.4240     9.7770   -22.7770 hc       702 1BR       0.038144
     48 H18         -6.8030     9.7150   -23.1990 hc       702 1BR       0.038144
     49 H19         -6.4700     8.4000   -22.0980 hc       702 1BR       0.038144
     50 H20         -6.9700     9.9540   -21.4770 hc       702 1BR       0.038144
     51 H21        -10.9380     4.5960   -15.2830 ha       702 1BR       0.138000
     52 H22        -11.5370     0.9640   -10.7350 h4       702 1BR       0.062100
     53 H23        -10.0730     4.9750   -13.8450 h1       702 1BR       0.067367
     54 H24         -9.1460     4.8190   -12.3720 h1       702 1BR       0.067367
     55 H25        -10.7760     5.4450   -12.3160 h1       702 1BR       0.067367
@<TRIPOS>BOND
     1     1     2 1   
     2     1    30 1   
     3     1    31 1   
     4     1    32 1   
     5     2     3 1   
     6     2    27 1   
     7     3     4 ar  
     8     3    20 ar  
     9     4     5 ar  
    10     4    33 1   
    11     5     6 ar  
    12     5    34 1   
    13     6     7 1   
    14     6    19 ar  
    15     7     8 1   
    16     7    35 1   
    17     8     9 1   
    18     8    36 1   
    19     8    37 1   
    20     9    10 ar  
    21     9    14 ar  
    22    10    11 ar  
    23    10    38 1   
    24    11    12 ar  
    25    11    39 1   
    26    12    15 1   
    27    12    13 ar  
    28    13    14 ar  
    29    13    40 1   
    30    14    41 1   
    31    15    16 1   
    32    15    17 1   
    33    15    18 1   
    34    16    42 1   
    35    16    43 1   
    36    16    44 1   
    37    17    45 1   
    38    17    46 1   
    39    17    47 1   
    40    18    48 1   
    41    18    49 1   
    42    18    50 1   
    43    19    20 ar  
    44    19    51 1   
    45    20    21 1   
    46    21    22 2   
    47    21    25 1   
    48    22    27 1   
    49    22    23 1   
    50    23    24 2   
    51    23    52 1   
    52    24    25 1   
    53    25    26 1   
    54    26    53 1   
    55    26    54 1   
    56    26    55 1   
    57    27    28 2   
    58    27    29 2   
@<TRIPOS>SUBSTRUCTURE
     1 1BR         1 TEMP              0 ****  ****    0 ROOT
